&share 
 wrf_core                              = 'ARW',
 max_dom                               = 3,
 start_date                            = '2010-10-14_00:00:00', '2010-10-14_00:00:00', '2010-10-14_00:00:00',
 end_date                              = '2010-10-15_18:00:00', '2010-10-15_18:00:00', '2010-10-15_18:00:00',
 interval_seconds                      = 21600,
 io_form_geogrid                       = 2,
/ 
 
&geogrid 
 parent_id                             = 1, 1, 2,
 parent_grid_ratio                     = 1, 3, 3,
 i_parent_start                        = 1, 15, 15,
 j_parent_start                        = 1, 15, 15,
 e_we                                  = 31, 31, 31,
 e_sn                                  = 31, 31, 31,
 geog_data_res                         = '30s', '30s', '30s',
 dx                                    = 27000,
 dy                                    = 27000,
 map_proj                              = 'mercator',
 ref_lat                               = -7.0,
 ref_lon                               = 107.0,
 truelat1                              = -15.0,
 truelat2                              = 15.0,
 stand_lon                             = -98.0,
 geog_data_path                        = '/home/arif/AQMDir/master/WRF_DATA/geog',
 opt_geogrid_tbl_path                  = 'geogrid/',
/ 
 
&ungrib 
 out_format                            = 'WPS',
 prefix                                = 'FILE',
/ 
 
&metgrid 
 fg_name                               = 'FILE',
 io_form_metgrid                       = 2,
/ 
 
